data/CS2/case33_1/case33_1_2040.m
function mpc = case33bw
%CASE33BW  Power flow data for 33 bus distribution system from Baran & Wu
%   Please see CASEFORMAT for details on the case file format.
%
%   Data from ...
%       M. E. Baran and F. F. Wu, "Network reconfiguration in distribution
%       systems for loss reduction and load balancing," in IEEE Transactions
%       on Power Delivery, vol. 4, no. 2, pp. 1401-1407, Apr 1989.
%       doi: 10.1109/61.25627
%       URL: https://doi.org/10.1109/61.25627

%% MATPOWER Case Format : Version 2
mpc.version = '2';

%%-----  Power Flow Data  -----%%
%% system MVA base
mpc.baseMVA = 10;

%% bus data
%	bus_i	type	Pd	Qd	Gs	Bs	area	Vm	Va	baseKV	zone	Vmax	Vmin
mpc.bus = [
	1	3	0.00	0.00	0.00	0.00	1	1.00	0.00	12.66	1	1.10	0.90;
	2	1	0.10	0.06	0.00	0.00	1	1.00	0.00	12.66	1	1.10	0.90;
	3	1	0.09	0.04	0.00	0.00	1	1.00	0.00	12.66	1	1.10	0.90;
	4	1	0.12	0.08	0.00	0.00	1	1.00	0.00	12.66	1	1.10	0.90;
	5	1	0.06	0.03	0.00	0.00	1	1.00	0.00	12.66	1	1.10	0.90;
	6	1	0.06	0.02	0.00	0.00	1	1.00	0.00	12.66	1	1.10	0.90;
	7	1	0.20	0.10	0.00	0.00	1	1.00	0.00	12.66	1	1.10	0.90;
	8	1	0.20	0.10	0.00	0.00	1	1.00	0.00	12.66	1	1.10	0.90;
	9	1	0.06	0.02	0.00	0.00	1	1.00	0.00	12.66	1	1.10	0.90;
	10	1	0.06	0.02	0.00	0.00	1	1.00	0.00	12.66	1	1.10	0.90;
	11	1	0.05	0.03	0.00	0.00	1	1.00	0.00	12.66	1	1.10	0.90;
	12	1	0.06	0.04	0.00	0.00	1	1.00	0.00	12.66	1	1.10	0.90;
	13	1	0.06	0.04	0.00	0.00	1	1.00	0.00	12.66	1	1.10	0.90;
	14	1	0.12	0.08	0.00	0.00	1	1.00	0.00	12.66	1	1.10	0.90;
	15	1	0.06	0.01	0.00	0.00	1	1.00	0.00	12.66	1	1.10	0.90;
	16	1	0.06	0.02	0.00	0.00	1	1.00	0.00	12.66	1	1.10	0.90;
	17	1	0.06	0.02	0.00	0.00	1	1.00	0.00	12.66	1	1.10	0.90;
	18	1	0.09	0.04	0.00	0.00	1	1.00	0.00	12.66	1	1.10	0.90;
	19	1	0.09	0.04	0.00	0.00	1	1.00	0.00	12.66	1	1.10	0.90;
	20	1	0.09	0.04	0.00	0.00	1	1.00	0.00	12.66	1	1.10	0.90;
	21	1	0.09	0.04	0.00	0.00	1	1.00	0.00	12.66	1	1.10	0.90;
	22	1	0.09	0.04	0.00	0.00	1	1.00	0.00	12.66	1	1.10	0.90;
	23	1	0.09	0.05	0.00	0.00	1	1.00	0.00	12.66	1	1.10	0.90;
	24	1	0.42	0.20	0.00	0.00	1	1.00	0.00	12.66	1	1.10	0.90;
	25	1	0.42	0.20	0.00	0.00	1	1.00	0.00	12.66	1	1.10	0.90;
	26	1	0.06	0.03	0.00	0.00	1	1.00	0.00	12.66	1	1.10	0.90;
	27	1	0.06	0.03	0.00	0.00	1	1.00	0.00	12.66	1	1.10	0.90;
	28	1	0.06	0.02	0.00	0.00	1	1.00	0.00	12.66	1	1.10	0.90;
	29	1	0.12	0.07	0.00	0.00	1	1.00	0.00	12.66	1	1.10	0.90;
	30	1	0.20	0.60	0.00	0.00	1	1.00	0.00	12.66	1	1.10	0.90;
	31	1	0.15	0.07	0.00	0.00	1	1.00	0.00	12.66	1	1.10	0.90;
	32	1	0.21	0.10	0.00	0.00	1	1.00	0.00	12.66	1	1.10	0.90;
	33	1	0.06	0.04	0.00	0.00	1	1.00	0.00	12.66	1	1.10	0.90;
];

%% generator data
%	bus	Pg	Qg	Qmax	Qmin	Vg	mBase	status	Pmax	Pmin	Pc1	Pc2	Qc1min	Qc1max	Qc2min	Qc2max	ramp_agc	ramp_10	ramp_30	ramp_q	apf
mpc.gen = [
	1	0	0	10	-10	1	100	1	10	0	0	0	0	0	0	0	0	0	0	0	0;
	18	0.00	0.00	0.00	0.00	1.00	100	1	0.00	0.00	0	0	0	0	0	0	0	0	0	0	0;
	22	0.00	0.00	0.00	0.00	1.00	100	1	1.00	0.00	0	0	0	0	0	0	0	0	0	0	0;
	25	0.00	0.00	0.00	0.00	1.00	100	1	1.00	0.00	0	0	0	0	0	0	0	0	0	0	0;
	33	0.00	0.00	0.00	0.00	1.00	100	1	1.00	0.00	0	0	0	0	0	0	0	0	0	0	0;
];

% Generation Technology Type:
%  CWS (Connection with Spain),
%  FOG (Fossil Gas),
%  FHC (Fossil Hard Coal),
%  HWR (Hydro Water Reservoir),
%  HPS (Hydro Pumped Storage),
%  HRP (Hydro Run-of-river and poundage),
%  SH1 (Small Hydro - P ≤ 10 MW),
%  SH3 (Small Hydro - 10 MW < P ≤ 30 MW),
%  PVP (Photovoltaic power plant),
%  WON (Wind onshore),
%  WOF (Wind offshore),
%  MAR (Marine),
%  OTH (Other thermal, such as geothermal, biomass, biogas, Municipal solid waste and CHP renewable and non-renewable)
%  REF (Reference node)
%	genType
mpc.gen_tags = {
	'REF';	'PVP';	'PVP';	'PVP';	'PVP';
};

%% branch data
%	fbus	tbus	r	x	b	rateA	rateB	rateC	ratio	angle	status	angmin	angmax
mpc.branch = [
	1	2	0.005753	0.002932	0.000000	10.00	10.00	10.00	0.00	0.00	1	-360.00	360.00;
	2	3	0.030760	0.015667	0.000000	5.00	5.00	5.00	0.00	0.00	1	-360.00	360.00;
	3	4	0.022836	0.011630	0.000000	5.00	5.00	5.00	0.00	0.00	1	-360.00	360.00;
	4	5	0.023778	0.012110	0.000000	4.00	4.00	4.00	0.00	0.00	1	-360.00	360.00;
	5	6	0.051099	0.044112	0.000000	3.00	3.00	3.00	0.00	0.00	1	-360.00	360.00;
	6	7	0.011680	0.038608	0.000000	2.00	2.00	2.00	0.00	0.00	1	-360.00	360.00;
	7	8	0.044386	0.014668	0.000000	2.00	2.00	2.00	0.00	0.00	1	-360.00	360.00;
	8	9	0.064264	0.046170	0.000000	2.00	2.00	2.00	0.00	0.00	1	-360.00	360.00;
	9	10	0.065138	0.046170	0.000000	2.00	2.00	2.00	0.00	0.00	1	-360.00	360.00;
	10	11	0.012266	0.004056	0.000000	1.00	1.00	1.00	0.00	0.00	1	-360.00	360.00;
	11	12	0.023360	0.007724	0.000000	1.00	1.00	1.00	0.00	0.00	1	-360.00	360.00;
	12	13	0.091592	0.072063	0.000000	1.00	1.00	1.00	0.00	0.00	1	-360.00	360.00;
	13	14	0.033792	0.044480	0.000000	1.00	1.00	1.00	0.00	0.00	1	-360.00	360.00;
	14	15	0.036874	0.032818	0.000000	0.50	0.50	0.50	0.00	0.00	1	-360.00	360.00;
	15	16	0.046564	0.034004	0.000000	0.50	0.50	0.50	0.00	0.00	1	-360.00	360.00;
	16	17	0.080424	0.107378	0.000000	0.50	0.50	0.50	0.00	0.00	1	-360.00	360.00;
	17	18	0.045671	0.035813	0.000000	0.50	0.50	0.50	0.00	0.00	1	-360.00	360.00;
	2	19	0.010232	0.009764	0.000000	1.00	1.00	1.00	0.00	0.00	1	-360.00	360.00;
	19	20	0.093851	0.084567	0.000000	0.75	0.75	0.75	0.00	0.00	1	-360.00	360.00;
	20	21	0.025550	0.029849	0.000000	0.75	0.75	0.75	0.00	0.00	1	-360.00	360.00;
	21	22	0.044230	0.058481	0.000000	1.00	1.00	0.50	0.00	0.00	1	-360.00	360.00;
	3	23	0.028152	0.019236	0.000000	2.00	2.00	2.00	0.00	0.00	1	-360.00	360.00;
	23	24	0.056028	0.044243	0.000000	2.00	2.00	2.00	0.00	0.00	1	-360.00	360.00;
	24	25	0.055904	0.043743	0.000000	1.00	1.00	1.00	0.00	0.00	1	-360.00	360.00;
	6	26	0.012666	0.006451	0.000000	2.00	2.00	2.00	0.00	0.00	1	-360.00	360.00;
	26	27	0.017732	0.009028	0.000000	2.00	2.00	2.00	0.00	0.00	1	-360.00	360.00;
	27	28	0.066074	0.058256	0.000000	2.00	2.00	2.00	0.00	0.00	1	-360.00	360.00;
	28	29	0.050176	0.043712	0.000000	2.00	2.00	2.00	0.00	0.00	1	-360.00	360.00;
	29	30	0.031664	0.016128	0.000000	2.00	2.00	2.00	0.00	0.00	1	-360.00	360.00;
	30	31	0.060795	0.060084	0.000000	2.00	2.00	2.00	0.00	0.00	1	-360.00	360.00;
	31	32	0.019373	0.022580	0.000000	1.00	1.00	1.00	0.00	0.00	1	-360.00	360.00;
	32	33	0.021276	0.033081	0.000000	1.00	1.00	1.00	0.00	0.00	1	-360.00	360.00;
	21	8	0.124785	0.124785	0.000000	0.50	0.50	0.50	0.00	0.00	0	-360.00	360.00;
	9	15	0.124785	0.124785	0.000000	1.00	1.00	1.00	0.00	0.00	0	-360.00	360.00;
	12	22	0.124785	0.124785	0.000000	0.50	0.50	0.50	0.00	0.00	0	-360.00	360.00;
	18	33	0.031196	0.031196	0.000000	0.50	0.50	0.50	0.00	0.00	0	-360.00	360.00;
	25	29	0.031196	0.031196	0.000000	1.00	1.00	1.00	0.00	0.00	0	-360.00	360.00;
];

%% energy storage
%	Bus	S, [MW]	E, [MWh]	Einit, [MWh]	EffCh	EffDch	MaxPF	MinPF
mpc.energy_storage = [
	15	0.50	1.00	0.50	0.95	0.95	0.80	-0.80;
	23	0.25	0.50	0.25	0.95	0.95	0.80	-0.80;
	27	0.50	1.00	0.50	0.95	0.95	0.80	-0.80;
	31	0.25	0.50	0.25	0.95	0.95	0.80	-0.80;
];